AABHTZ
     RDKit          3D

 35 36  0  0  0  0  0  0  0  0999 V2000
    4.2693   -2.1717    1.0205 Cl  0  0  0  0  0  0  0  0  0  0  0  0
    1.5166    1.9900   -1.1097 Cl  0  0  0  0  0  0  0  0  0  0  0  0
    4.2664   -0.6386    0.1727 C   0  0  0  0  0  0  0  0  0  0  0  0
    5.4518   -0.0787   -0.2108 C   0  0  0  0  0  0  0  0  0  0  0  0
    5.4295    1.1432   -0.8858 C   0  0  0  0  0  0  0  0  0  0  0  0
    4.2418    1.7953   -1.1729 C   0  0  0  0  0  0  0  0  0  0  0  0
    3.0500    1.2109   -0.7755 C   0  0  0  0  0  0  0  0  0  0  0  0
    3.0805    0.0103   -0.1128 C   0  0  0  0  0  0  0  0  0  0  0  0
    1.8358   -0.6242    0.3176 C   0  0  0  0  0  0  0  0  0  0  0  0
    0.7168   -0.0498    0.0693 N   0  0  0  0  0  0  0  0  0  0  0  0
   -0.4670   -0.6621    0.4841 N   0  0  0  0  0  0  0  0  0  0  0  0
   -1.2364   -1.3543   -0.4806 C   0  0  0  0  0  0  0  0  0  0  0  0
   -0.9065   -2.4470   -1.1820 N   0  0  0  0  0  0  0  0  0  0  0  0
   -1.8698   -2.8069   -1.9805 N   0  0  0  0  0  0  0  0  0  0  0  0
   -2.8914   -1.9241   -1.8137 C   0  0  0  0  0  0  0  0  0  0  0  0
   -2.5012   -1.0419   -0.9000 N   0  0  0  0  0  0  0  0  0  0  0  0
   -3.1935    0.0440   -0.3985 N   0  0  0  0  0  0  0  0  0  0  0  0
   -4.4887    0.3644   -0.8169 C   0  0  0  0  0  0  0  0  0  0  0  0
   -5.1731    1.5521   -0.2318 C   0  0  2  0  0  0  0  0  0  0  0  0
   -5.1258   -0.2933   -1.6677 O   0  0  0  0  0  0  0  0  0  0  0  0
   -0.8537   -0.5778    1.8360 C   0  0  0  0  0  0  0  0  0  0  0  0
   -0.0210    0.1538    2.8082 C   0  0  1  0  0  0  0  0  0  0  0  0
   -1.9111   -1.1266    2.2207 O   0  0  0  0  0  0  0  0  0  0  0  0
    6.4149   -0.5400   -0.0159 H   0  0  0  0  0  0  0  0  0  0  0  0
    6.3316    1.6365   -1.2148 H   0  0  0  0  0  0  0  0  0  0  0  0
    4.1818    2.7374   -1.6905 H   0  0  0  0  0  0  0  0  0  0  0  0
    1.8393   -1.5619    0.8378 H   0  0  0  0  0  0  0  0  0  0  0  0
   -3.8338   -1.9946   -2.3693 H   0  0  0  0  0  0  0  0  0  0  0  0
   -2.7561    0.6778    0.3311 H   0  0  0  0  0  0  0  0  0  0  0  0
   -5.4367    1.3174    0.8226 H   0  0  0  0  0  0  0  0  0  0  0  0
   -6.0613    1.8049   -0.8233 H   0  0  0  0  0  0  0  0  0  0  0  0
   -4.4614    2.4068   -0.2277 H   0  0  0  0  0  0  0  0  0  0  0  0
    1.0614   -0.0948    2.6747 H   0  0  0  0  0  0  0  0  0  0  0  0
   -0.1538    1.2312    2.6552 H   0  0  0  0  0  0  0  0  0  0  0  0
   -0.3454   -0.0874    3.8301 H   0  0  0  0  0  0  0  0  0  0  0  0
  1  3  1  0
  2  7  1  0
  3  4  2  0
  4  5  1  0
  5  6  2  0
  6  7  1  0
  7  8  2  0
  8  3  1  0
  9  8  1  0
 10  9  2  0
 11 10  1  0
 12 11  1  0
 13 12  2  0
 14 13  1  0
 15 14  2  0
 16 12  1  0
 17 16  1  0
 18 17  1  0
 19 18  1  0
 20 18  2  0
 21 11  1  0
 22 21  1  0
 23 21  2  0
 24  4  1  0
 25  5  1  0
 26  6  1  0
 27  9  1  0
 28 15  1  0
 29 17  1  0
 19 30  1  1
 31 19  1  0
 32 19  1  0
 22 33  1  1
 34 22  1  0
 35 22  1  0
 15 16  1  0
M  END
$$$$
AACFAZ10
     RDKit          3D

 58 61  0  0  0  0  0  0  0  0999 V2000
   -4.7500    0.2357   -0.7618 Cl  0  0  0  0  0  0  0  0  0  0  0  0
   -4.3090    1.1416    0.6630 C   0  0  0  0  0  0  0  0  0  0  0  0
   -3.6620    0.4835    1.6808 C   0  0  0  0  0  0  0  0  0  0  0  0
   -3.3213    1.2132    2.7988 C   0  0  0  0  0  0  0  0  0  0  0  0
   -3.6207    2.5687    2.8961 C   0  0  0  0  0  0  0  0  0  0  0  0
   -4.2712    3.2025    1.8577 C   0  0  0  0  0  0  0  0  0  0  0  0
   -4.6213    2.4907    0.7295 C   0  0  0  0  0  0  0  0  0  0  0  0
   -3.3519   -0.9390    1.5706 C   0  0  2  0  0  0  0  0  0  0  0  0
   -2.7889   -1.3767    0.2969 C   0  0  0  0  0  0  0  0  0  0  0  0
   -1.6419   -0.8302   -0.3992 C   0  0  0  0  0  0  0  0  0  0  0  0
   -0.9659    0.1697    0.0855 N   0  0  0  0  0  0  0  0  0  0  0  0
   -1.2071   -1.4159   -1.7100 C   0  0  1  0  0  0  0  0  0  0  0  0
   -3.5220   -2.3841   -0.1271 C   0  0  0  0  0  0  0  0  0  0  0  0
   -4.5882   -2.6576    0.8278 C   0  0  0  0  0  0  0  0  0  0  0  0
   -3.3176   -4.5371   -1.2475 C   0  0  1  0  0  0  0  0  0  0  0  0
   -3.3419   -3.1035   -1.2981 O   0  0  0  0  0  0  0  0  0  0  0  0
   -5.4755   -3.5704    0.7197 O   0  0  0  0  0  0  0  0  0  0  0  0
   -4.4629   -1.7644    1.8503 O   0  0  0  0  0  0  0  0  0  0  0  0
   -2.8051    0.7656    3.6527 H   0  0  0  0  0  0  0  0  0  0  0  0
   -3.3682    3.1662    3.7553 H   0  0  0  0  0  0  0  0  0  0  0  0
   -4.5239    4.2661    1.8962 H   0  0  0  0  0  0  0  0  0  0  0  0
   -5.1337    2.9917   -0.0874 H   0  0  0  0  0  0  0  0  0  0  0  0
   -2.6114   -1.1820    2.3942 H   0  0  0  0  0  0  0  0  0  0  0  0
   -0.8135   -2.4489   -1.5819 H   0  0  0  0  0  0  0  0  0  0  0  0
   -2.0865   -1.4744   -2.4089 H   0  0  0  0  0  0  0  0  0  0  0  0
   -0.4027   -0.8167   -2.1444 H   0  0  0  0  0  0  0  0  0  0  0  0
   -4.2873   -4.9036   -0.8406 H   0  0  0  0  0  0  0  0  0  0  0  0
   -3.1952   -4.9479   -2.2510 H   0  0  0  0  0  0  0  0  0  0  0  0
   -2.4799   -4.8134   -0.6042 H   0  0  0  0  0  0  0  0  0  0  0  0
    0.1268    0.6647   -0.6116 N   0  0  0  0  0  0  0  0  0  0  0  0
    1.2886    0.0800   -0.5914 C   0  0  0  0  0  0  0  0  0  0  0  0
    2.3746    0.6673   -1.3496 C   0  0  0  0  0  0  0  0  0  0  0  0
    1.4261   -1.1536    0.2078 C   0  0  2  0  0  0  0  0  0  0  0  0
    3.7356    0.1380   -1.4405 C   0  0  2  0  0  0  0  0  0  0  0  0
    2.2859    1.7643   -2.0719 C   0  0  0  0  0  0  0  0  0  0  0  0
    1.4202   -2.0084   -0.5148 H   0  0  0  0  0  0  0  0  0  0  0  0
    0.5492   -1.2566    0.8642 H   0  0  0  0  0  0  0  0  0  0  0  0
    2.3495   -1.1425    0.8276 H   0  0  0  0  0  0  0  0  0  0  0  0
    4.4418    0.0249   -0.1385 C   0  0  0  0  0  0  0  0  0  0  0  0
    4.4678    1.0171   -2.2738 O   0  0  0  0  0  0  0  0  0  0  0  0
    3.7445   -0.8736   -1.9123 H   0  0  0  0  0  0  0  0  0  0  0  0
    3.5932    2.0097   -2.6678 C   0  0  0  0  0  0  0  0  0  0  0  0
    1.1457    2.5719   -2.2519 O   0  0  0  0  0  0  0  0  0  0  0  0
    4.4375    1.0116    0.8241 C   0  0  0  0  0  0  0  0  0  0  0  0
    5.1662   -1.1313    0.1679 C   0  0  0  0  0  0  0  0  0  0  0  0
    3.8363    3.0044   -3.4289 O   0  0  0  0  0  0  0  0  0  0  0  0
    1.2412    3.7994   -2.9624 C   0  0  2  0  0  0  0  0  0  0  0  0
    3.5446    2.5009    0.5084 Cl  0  0  0  0  0  0  0  0  0  0  0  0
    5.1197    0.8552    2.0302 C   0  0  0  0  0  0  0  0  0  0  0  0
    5.8410   -1.2876    1.3594 C   0  0  0  0  0  0  0  0  0  0  0  0
    5.1743   -1.9075   -0.5798 H   0  0  0  0  0  0  0  0  0  0  0  0
    1.9801    4.4182   -2.3902 H   0  0  0  0  0  0  0  0  0  0  0  0
    0.2668    4.3268   -2.9867 H   0  0  0  0  0  0  0  0  0  0  0  0
    1.6650    3.6687   -3.9788 H   0  0  0  0  0  0  0  0  0  0  0  0
    5.8278   -0.2923    2.3126 C   0  0  0  0  0  0  0  0  0  0  0  0
    5.1057    1.6325    2.7674 H   0  0  0  0  0  0  0  0  0  0  0  0
    6.4052   -2.1905    1.5956 H   0  0  0  0  0  0  0  0  0  0  0  0
    6.3657   -0.4410    3.2386 H   0  0  0  0  0  0  0  0  0  0  0  0
  1  2  1  0
  2  3  2  0
  3  4  1  0
  4  5  2  0
  5  6  1  0
  6  7  2  0
  7  2  1  0
  8  3  1  0
  9  8  1  0
 10  9  1  0
 11 10  2  0
 12 10  1  0
 13  9  2  0
 14 13  1  0
 15 16  1  0
 16 13  1  0
 17 14  2  0
 18  8  1  0
 19  4  1  0
 20  5  1  0
 21  6  1  0
 22  7  1  0
  8 23  1  1
 12 24  1  1
 25 12  1  0
 26 12  1  0
 15 27  1  1
 28 15  1  0
 29 15  1  0
 30 11  1  0
 31 30  2  0
 32 31  1  0
 33 31  1  0
 34 32  1  0
 35 32  2  0
 33 36  1  6
 37 33  1  0
 38 33  1  0
 39 34  1  0
 40 34  1  0
 34 41  1  6
 42 35  1  0
 43 35  1  0
 44 39  2  0
 45 39  1  0
 46 42  2  0
 47 43  1  0
 48 44  1  0
 49 44  1  0
 50 45  2  0
 51 45  1  0
 47 52  1  1
 53 47  1  0
 54 47  1  0
 55 49  2  0
 56 49  1  0
 57 50  1  0
 58 55  1  0
 14 18  1  0
 40 42  1  0
 50 55  1  0
M  END
$$$$
AACMHX10
     RDKit          3D

 45 47  0  0  0  0  0  0  0  0999 V2000
   -0.1183   -0.7861   -0.4693 C   0  0  0  0  0  0  0  0  0  0  0  0
   -3.1631    2.6018   -1.9292 C   0  0  0  0  0  0  0  0  0  0  0  0
   -4.1080    1.7912   -2.5096 C   0  0  0  0  0  0  0  0  0  0  0  0
   -4.0170    0.4370   -2.2953 C   0  0  0  0  0  0  0  0  0  0  0  0
   -2.9918   -0.0835   -1.5114 C   0  0  0  0  0  0  0  0  0  0  0  0
    1.8248   -0.2111    0.9780 C   0  0  0  0  0  0  0  0  0  0  0  0
    2.6719    0.5337    0.1880 C   0  0  0  0  0  0  0  0  0  0  0  0
    3.5111    1.5268    0.6864 C   0  0  0  0  0  0  0  0  0  0  0  0
    3.5199    1.8045    2.0368 C   0  0  0  0  0  0  0  0  0  0  0  0
    2.6905    1.0845    2.8583 C   0  0  0  0  0  0  0  0  0  0  0  0
    1.8693    0.1072    2.3416 C   0  0  0  0  0  0  0  0  0  0  0  0
    0.9597   -1.2492    0.4215 C   0  0  2  0  0  0  0  0  0  0  0  0
   -1.4850    0.1950    2.2094 C   0  0  0  0  0  0  0  0  0  0  0  0
   -1.4175    0.6713    3.6148 C   0  0  1  0  0  0  0  0  0  0  0  0
    1.7075   -2.4367   -0.1155 C   0  0  2  0  0  0  0  0  0  0  0  0
    2.0332   -2.3675   -1.5577 C   0  0  2  0  0  0  0  0  0  0  0  0
    1.1110   -1.5720   -2.3955 C   0  0  2  0  0  0  0  0  0  0  0  0
   -0.2620   -1.4233   -1.7785 C   0  0  2  0  0  0  0  0  0  0  0  0
   -0.9366    0.1800   -0.1145 C   0  0  0  0  0  0  0  0  0  0  0  0
   -2.0349    0.7076   -0.9214 C   0  0  0  0  0  0  0  0  0  0  0  0
   -2.1440    2.0754   -1.1489 C   0  0  0  0  0  0  0  0  0  0  0  0
   -3.2032    3.6718   -2.0758 H   0  0  0  0  0  0  0  0  0  0  0  0
   -4.9001    2.2051   -3.1173 H   0  0  0  0  0  0  0  0  0  0  0  0
   -4.7416   -0.2266   -2.7344 H   0  0  0  0  0  0  0  0  0  0  0  0
   -2.9357   -1.1675   -1.3348 H   0  0  0  0  0  0  0  0  0  0  0  0
    2.6936    0.3408   -0.8713 H   0  0  0  0  0  0  0  0  0  0  0  0
    4.1604    2.0816   -0.0007 H   0  0  0  0  0  0  0  0  0  0  0  0
    4.1812    2.5770    2.3818 H   0  0  0  0  0  0  0  0  0  0  0  0
    2.6985    1.3048    3.9186 H   0  0  0  0  0  0  0  0  0  0  0  0
    1.2117   -0.4607    3.0135 H   0  0  0  0  0  0  0  0  0  0  0  0
    0.3973   -1.6710    1.3194 H   0  0  0  0  0  0  0  0  0  0  0  0
   -0.5253    1.3279    3.6881 H   0  0  0  0  0  0  0  0  0  0  0  0
   -2.3514    1.2172    3.8737 H   0  0  0  0  0  0  0  0  0  0  0  0
   -1.3053   -0.2337    4.2784 H   0  0  0  0  0  0  0  0  0  0  0  0
    1.1733   -3.3943    0.1020 H   0  0  0  0  0  0  0  0  0  0  0  0
    2.6637   -2.4994    0.4526 H   0  0  0  0  0  0  0  0  0  0  0  0
    2.0368   -3.4200   -1.9742 H   0  0  0  0  0  0  0  0  0  0  0  0
    3.0835   -2.0076   -1.7727 H   0  0  0  0  0  0  0  0  0  0  0  0
    0.9454   -2.0710   -3.4094 H   0  0  0  0  0  0  0  0  0  0  0  0
    1.4602   -0.5508   -2.6482 H   0  0  0  0  0  0  0  0  0  0  0  0
   -0.9272   -0.8538   -2.4721 H   0  0  0  0  0  0  0  0  0  0  0  0
   -0.6512   -2.4748   -1.6407 H   0  0  0  0  0  0  0  0  0  0  0  0
   -1.3940    2.7191   -0.6887 H   0  0  0  0  0  0  0  0  0  0  0  0
   -0.7467    0.7677    1.1687 O   0  0  0  0  0  0  0  0  0  0  0  0
   -2.2446   -0.7685    1.9553 O   0  0  0  0  0  0  0  0  0  0  0  0
  1 12  1  0
  2  3  2  0
  3  4  1  0
  4  5  2  0
  5 20  1  0
  6  7  2  0
  7  8  1  0
  8  9  2  0
  9 10  1  0
 10 11  2  0
 11  6  1  0
 12  6  1  0
 13 14  1  0
 14 32  1  6
 15 12  1  0
 16 15  1  0
 17 16  1  0
 18  1  1  0
 19  1  2  0
 20 19  1  0
 21  2  1  0
 22  2  1  0
 23  3  1  0
 24  4  1  0
 25  5  1  0
 26  7  1  0
 27  8  1  0
 28  9  1  0
 29 10  1  0
 30 11  1  0
 12 31  1  1
 33 14  1  0
 34 14  1  0
 15 35  1  6
 36 15  1  0
 16 37  1  6
 38 16  1  0
 17 39  1  6
 40 17  1  0
 18 41  1  6
 42 18  1  0
 43 21  1  0
 44 13  1  0
 45 13  2  0
 17 18  1  0
 19 44  1  0
 20 21  2  0
M  END
$$$$
