ABOQOZ
     RDKit          3D

 30 31  0  0  0  0  0  0  0  0999 V2000
   -5.3832    3.1217    1.0816 Br  0  0  0  0  0  0  0  0  0  0  0  0
    2.5222   -1.9181   -0.1251 F   0  0  0  0  0  0  0  0  0  0  0  0
   -0.6229    0.5223    0.0288 N   0  0  0  0  0  0  0  0  0  0  0  0
    0.6815    0.1290   -0.1603 N   0  0  0  0  0  0  0  0  0  0  0  0
   -3.5627   -2.3117   -0.9408 O   0  0  0  0  0  0  0  0  0  0  0  0
   -2.8675   -2.6823   -0.3721 H   0  0  0  0  0  0  0  0  0  0  0  0
    1.6401    2.0680    0.4661 O   0  0  0  0  0  0  0  0  0  0  0  0
   -2.9755   -0.0900   -0.1598 C   0  0  0  0  0  0  0  0  0  0  0  0
   -3.9235   -1.0705   -0.4981 C   0  0  0  0  0  0  0  0  0  0  0  0
   -5.2855   -0.7925   -0.3854 C   0  0  0  0  0  0  0  0  0  0  0  0
   -6.0082   -1.5560   -0.6554 H   0  0  0  0  0  0  0  0  0  0  0  0
   -5.7249    0.4482    0.0805 C   0  0  0  0  0  0  0  0  0  0  0  0
   -6.7865    0.6544    0.1722 H   0  0  0  0  0  0  0  0  0  0  0  0
   -4.7954    1.4255    0.4349 C   0  0  0  0  0  0  0  0  0  0  0  0
   -3.4303    1.1563    0.3111 C   0  0  0  0  0  0  0  0  0  0  0  0
   -2.7250    1.9345    0.5848 H   0  0  0  0  0  0  0  0  0  0  0  0
   -1.5404   -0.3544   -0.3111 C   0  0  0  0  0  0  0  0  0  0  0  0
   -1.2175   -1.3046   -0.7246 H   0  0  0  0  0  0  0  0  0  0  0  0
    1.8065    0.9110    0.0777 C   0  0  0  0  0  0  0  0  0  0  0  0
    3.1790    0.4117   -0.1492 C   0  0  0  0  0  0  0  0  0  0  0  0
    3.4730   -0.9650   -0.2500 C   0  0  0  0  0  0  0  0  0  0  0  0
    4.7868   -1.3896   -0.4669 C   0  0  0  0  0  0  0  0  0  0  0  0
    4.9961   -2.4520   -0.5406 H   0  0  0  0  0  0  0  0  0  0  0  0
    5.8276   -0.4689   -0.5845 C   0  0  0  0  0  0  0  0  0  0  0  0
    6.8440   -0.8106   -0.7524 H   0  0  0  0  0  0  0  0  0  0  0  0
    5.5537    0.8930   -0.4816 C   0  0  0  0  0  0  0  0  0  0  0  0
    6.3585    1.6157   -0.5709 H   0  0  0  0  0  0  0  0  0  0  0  0
    4.2448    1.3294   -0.2641 C   0  0  0  0  0  0  0  0  0  0  0  0
    4.0632    2.3969   -0.1907 H   0  0  0  0  0  0  0  0  0  0  0  0
    0.8691   -0.8087   -0.5137 H   0  0  0  0  0  0  0  0  0  0  0  0
  1 14  1  0
  2 21  1  0
  3  4  1  0
  4 19  1  0
  5  6  1  0
  7 19  2  0
  8  9  2  0
  9  5  1  0
 10  9  1  0
 11 10  1  0
 12 10  2  0
 13 12  1  0
 14 12  1  0
 15  8  1  0
 16 15  1  0
 17  3  2  0
 18 17  1  0
 19 20  1  0
 20 21  2  0
 21 22  1  0
 22 23  1  0
 24 22  2  0
 25 24  1  0
 26 24  1  0
 27 26  1  0
 28 20  1  0
 29 28  1  0
 30  4  1  0
  8 17  1  0
 14 15  2  0
 26 28  2  0
M  END
